
  ACD/Labs0910041631  

 34 35  0  0  0  0  0  0  0  0  1 V2000
    9.2796  -10.7637    1.8924 C   0  0  0  0  0  0  0  0  0  0  0  0
    9.0152  -11.4223    0.5528 C   0  0  0  0  0  0  0  0  0  0  0  0
    8.1238   -9.9783    2.1542 O   0  0  0  0  0  0  0  0  0  0  0  0
    7.5287  -11.6924    0.6014 C   0  0  0  0  0  0  0  0  0  0  0  0
    7.0484  -10.8366    1.7746 C   0  0  0  0  0  0  0  0  0  0  0  0
    5.8188  -10.0203    1.3857 C   0  0  0  0  0  0  0  0  0  0  0  0
    5.2600   -9.4196    2.5436 O   0  0  0  0  0  0  0  0  0  0  0  0
    7.2826  -13.0617    0.8936 O   0  0  0  0  0  0  0  0  0  0  0  0
    3.8348   -7.7957    3.3621 O   0  0  0  0  0  0  0  0  0  0  0  0
    3.1738   -9.1175    1.5749 O   0  0  0  0  0  0  0  0  0  0  0  0
    4.8124   -7.5650    1.3244 O   0  0  0  0  0  0  0  0  0  0  0  0
    4.2754   -8.4644    2.1900 P   0  0  0  0  0  0  0  0  0  0  0  0
   12.9428   -9.7106    1.6947 N   0  0  0  0  0  0  0  0  0  0  0  0
   11.7236  -10.5232    1.5941 C   0  0  0  0  0  0  0  0  0  0  0  0
   12.8627   -8.4572    2.0406 C   0  0  0  0  0  0  0  0  0  0  0  0
   10.5020   -9.9399    1.8782 N   0  0  0  0  0  0  0  0  0  0  0  0
   11.5482   -7.8520    2.3239 C   0  0  0  0  0  0  0  0  0  0  0  0
   10.4348   -8.6014    2.2357 C   0  0  0  0  0  0  0  0  0  0  0  0
   14.0114   -7.6982    2.1482 N   0  0  0  0  0  0  0  0  0  0  0  0
   11.7923  -11.6879    1.2640 O   0  0  0  0  0  0  0  0  0  0  0  0
    9.3716  -11.5364    2.6775 H   0  0  0  0  0  0  0  0  0  0  0  0
    9.5768  -12.3701    0.4686 H   0  0  0  0  0  0  0  0  0  0  0  0
    9.2798  -10.7588   -0.2886 H   0  0  0  0  0  0  0  0  0  0  0  0
    7.0348  -11.4030   -0.3448 H   0  0  0  0  0  0  0  0  0  0  0  0
    6.8059  -11.4969    2.6258 H   0  0  0  0  0  0  0  0  0  0  0  0
    5.0687  -10.6976    0.9381 H   0  0  0  0  0  0  0  0  0  0  0  0
    6.0943   -9.2383    0.6555 H   0  0  0  0  0  0  0  0  0  0  0  0
    7.5318  -13.5351    0.0961 H   0  0  0  0  0  0  0  0  0  0  0  0
    3.2112   -7.1350    3.0534 H   0  0  0  0  0  0  0  0  0  0  0  0
    2.5241   -8.4260    1.4293 H   0  0  0  0  0  0  0  0  0  0  0  0
   11.4800   -6.7926    2.6143 H   0  0  0  0  0  0  0  0  0  0  0  0
    9.4578   -8.1491    2.4533 H   0  0  0  0  0  0  0  0  0  0  0  0
   14.0502   -6.6437    2.4596 H   0  0  0  0  0  0  0  0  0  0  0  0
   15.0324   -8.0646    1.9677 H   0  0  0  0  0  0  0  0  0  0  0  0
  1  2  1  0  0  0  0
  1  3  1  0  0  0  0
  4  2  1  0  0  0  0
  3  5  1  0  0  0  0
  5  4  1  0  0  0  0
  6  5  1  0  0  0  0
  7  6  1  0  0  0  0
  8  4  1  0  0  0  0
  9 12  1  0  0  0  0
 10 12  1  0  0  0  0
  7 12  1  0  0  0  0
 11 12  2  0  0  0  0
 13 14  1  0  0  0  0
 13 15  2  0  0  0  0
 14 16  1  0  0  0  0
 15 17  1  0  0  0  0
 16 18  1  0  0  0  0
 17 18  2  0  0  0  0
 19 15  1  0  0  0  0
 20 14  2  0  0  0  0
  1 16  1  0  0  0  0
 21  1  1  0  0  0  0
 22  2  1  0  0  0  0
 23  2  1  0  0  0  0
 24  4  1  0  0  0  0
 25  5  1  0  0  0  0
 26  6  1  0  0  0  0
 27  6  1  0  0  0  0
 28  8  1  0  0  0  0
 29  9  1  0  0  0  0
 30 10  1  0  0  0  0
 31 17  1  0  0  0  0
 32 18  1  0  0  0  0
 33 19  1  0  0  0  0
 34 19  1  0  0  0  0
M  END
