
  ACD/Labs0910041611  

 36 38  0  0  0  0  0  0  0  0  1 V2000
   14.6294   -9.2365    1.5489 N   0  0  0  0  0  0  0  0  0  0  0  0
   13.7047  -10.3452    1.8259 C   0  0  0  0  0  0  0  0  0  0  0  0
   13.3724  -11.1911    0.6006 C   0  0  0  0  0  0  0  0  0  0  0  0
   12.4573   -9.8621    2.3106 O   0  0  0  0  0  0  0  0  0  0  0  0
   11.9916  -11.7386    0.9000 C   0  0  0  0  0  0  0  0  0  0  0  0
   11.5278  -10.9230    2.1051 C   0  0  0  0  0  0  0  0  0  0  0  0
   10.1254  -10.3530    1.9000 C   0  0  0  0  0  0  0  0  0  0  0  0
    9.4427  -10.3179    3.1430 O   0  0  0  0  0  0  0  0  0  0  0  0
   12.0745  -13.1038    1.2845 O   0  0  0  0  0  0  0  0  0  0  0  0
    8.3361   -8.6213    2.0144 O   0  0  0  0  0  0  0  0  0  0  0  0
    7.5539   -9.3648    4.0745 O   0  0  0  0  0  0  0  0  0  0  0  0
    9.4936   -8.1911    3.9227 O   0  0  0  0  0  0  0  0  0  0  0  0
    8.7137   -9.1122    3.2940 P   0  0  0  0  0  0  0  0  0  0  0  0
   16.3912   -8.0703    1.0257 C   0  0  0  0  0  0  0  0  0  0  0  0
   15.8863   -9.3350    1.1089 C   0  0  0  0  0  0  0  0  0  0  0  0
   17.6902   -7.8576    0.6083 C   0  0  0  0  0  0  0  0  0  0  0  0
   16.6225  -10.4536    0.7791 N   0  0  0  0  0  0  0  0  0  0  0  0
   18.4505   -8.9694    0.2689 N   0  0  0  0  0  0  0  0  0  0  0  0
   17.9261  -10.2557    0.3494 C   0  0  0  0  0  0  0  0  0  0  0  0
   14.3677   -7.9297    1.7231 C   0  0  0  0  0  0  0  0  0  0  0  0
   15.4507   -7.1878    1.4057 N   0  0  0  0  0  0  0  0  0  0  0  0
   18.2370   -6.5595    0.5349 N   0  0  0  0  0  0  0  0  0  0  0  0
   14.1732  -11.0020    2.5769 H   0  0  0  0  0  0  0  0  0  0  0  0
   14.1076  -12.0134    0.5057 H   0  0  0  0  0  0  0  0  0  0  0  0
   13.3728  -10.5910   -0.3238 H   0  0  0  0  0  0  0  0  0  0  0  0
   11.3166  -11.6161    0.0314 H   0  0  0  0  0  0  0  0  0  0  0  0
   11.5333  -11.5779    2.9934 H   0  0  0  0  0  0  0  0  0  0  0  0
    9.5644  -11.0063    1.2113 H   0  0  0  0  0  0  0  0  0  0  0  0
   10.1874   -9.3377    1.4763 H   0  0  0  0  0  0  0  0  0  0  0  0
   12.2957  -13.5846    0.4813 H   0  0  0  0  0  0  0  0  0  0  0  0
    7.8857   -7.7935    2.1977 H   0  0  0  0  0  0  0  0  0  0  0  0
    7.1550   -8.5018    4.2076 H   0  0  0  0  0  0  0  0  0  0  0  0
   18.5486  -11.1204    0.0730 H   0  0  0  0  0  0  0  0  0  0  0  0
   13.4079   -7.5243    2.0812 H   0  0  0  0  0  0  0  0  0  0  0  0
   19.2752   -6.3243    0.2643 H   0  0  0  0  0  0  0  0  0  0  0  0
   17.7189   -5.6365    0.8285 H   0  0  0  0  0  0  0  0  0  0  0  0
  1  2  1  0  0  0  0
  2  3  1  0  0  0  0
  2  4  1  0  0  0  0
  5  3  1  0  0  0  0
  4  6  1  0  0  0  0
  6  5  1  0  0  0  0
  7  6  1  0  0  0  0
  8  7  1  0  0  0  0
  9  5  1  0  0  0  0
 10 13  1  0  0  0  0
 11 13  1  0  0  0  0
  8 13  1  0  0  0  0
 12 13  2  0  0  0  0
 14 16  1  0  0  0  0
 15 17  1  0  0  0  0
 16 18  2  0  0  0  0
 17 19  2  0  0  0  0
 18 19  1  0  0  0  0
 20  1  1  0  0  0  0
 15  1  1  0  0  0  0
 21 20  2  0  0  0  0
 14 15  2  0  0  0  0
 14 21  1  0  0  0  0
 22 16  1  0  0  0  0
 23  2  1  0  0  0  0
 24  3  1  0  0  0  0
 25  3  1  0  0  0  0
 26  5  1  0  0  0  0
 27  6  1  0  0  0  0
 28  7  1  0  0  0  0
 29  7  1  0  0  0  0
 30  9  1  0  0  0  0
 31 10  1  0  0  0  0
 32 11  1  0  0  0  0
 33 19  1  0  0  0  0
 34 20  1  0  0  0  0
 35 22  1  0  0  0  0
 36 22  1  0  0  0  0
M  END
