
  ACD/Labs0910041618  

 36 37  0  0  0  0  0  0  0  0  1 V2000
   13.8070  -10.4973    1.9625 C   0  0  0  0  0  0  0  0  0  0  0  0
   13.7932  -11.8038    1.1911 C   0  0  0  0  0  0  0  0  0  0  0  0
   12.7268   -9.7144    1.4484 O   0  0  0  0  0  0  0  0  0  0  0  0
   12.3263  -12.0264    1.0125 C   0  0  0  0  0  0  0  0  0  0  0  0
   11.8050  -10.6120    0.8136 C   0  0  0  0  0  0  0  0  0  0  0  0
   10.4078  -10.4964    1.4194 C   0  0  0  0  0  0  0  0  0  0  0  0
    9.5294   -9.7963    0.5517 O   0  0  0  0  0  0  0  0  0  0  0  0
   12.0506  -12.8282   -0.1305 O   0  0  0  0  0  0  0  0  0  0  0  0
    8.8176   -8.8088    2.5271 O   0  0  0  0  0  0  0  0  0  0  0  0
    7.9167   -8.1432    0.4981 O   0  0  0  0  0  0  0  0  0  0  0  0
   10.0686   -7.6487    1.0294 O   0  0  0  0  0  0  0  0  0  0  0  0
    9.0943   -8.5877    1.1519 P   0  0  0  0  0  0  0  0  0  0  0  0
   16.3259   -7.7918    2.1089 C   0  0  0  0  0  0  0  0  0  0  0  0
   15.1494   -8.4372    2.0834 C   0  0  0  0  0  0  0  0  0  0  0  0
   17.5614   -8.5442    1.8679 C   0  0  0  0  0  0  0  0  0  0  0  0
   15.0994   -9.7984    1.8303 N   0  0  0  0  0  0  0  0  0  0  0  0
   17.4895   -9.8990    1.6211 N   0  0  0  0  0  0  0  0  0  0  0  0
   16.2610  -10.5300    1.6207 C   0  0  0  0  0  0  0  0  0  0  0  0
   18.6335   -7.9821    1.8920 O   0  0  0  0  0  0  0  0  0  0  0  0
   16.1963  -11.7227    1.4409 O   0  0  0  0  0  0  0  0  0  0  0  0
   16.3733   -6.3135    2.3872 C   0  0  0  0  0  0  0  0  0  0  0  0
   13.6152  -10.7009    3.0298 H   0  0  0  0  0  0  0  0  0  0  0  0
   14.2425  -12.6155    1.7930 H   0  0  0  0  0  0  0  0  0  0  0  0
   14.3218  -11.7208    0.2250 H   0  0  0  0  0  0  0  0  0  0  0  0
   11.8900  -12.4864    1.9197 H   0  0  0  0  0  0  0  0  0  0  0  0
   11.7694  -10.3820   -0.2650 H   0  0  0  0  0  0  0  0  0  0  0  0
   10.4780   -9.9572    2.3809 H   0  0  0  0  0  0  0  0  0  0  0  0
    9.9968  -11.5033    1.5959 H   0  0  0  0  0  0  0  0  0  0  0  0
   12.0781  -13.7316    0.1933 H   0  0  0  0  0  0  0  0  0  0  0  0
    8.5182   -7.9581    2.8562 H   0  0  0  0  0  0  0  0  0  0  0  0
    7.7353   -7.2804    0.8763 H   0  0  0  0  0  0  0  0  0  0  0  0
   14.2186   -7.8811    2.2729 H   0  0  0  0  0  0  0  0  0  0  0  0
   18.4082  -10.4842    1.4625 H   0  0  0  0  0  0  0  0  0  0  0  0
   16.2045   -6.1162    3.4576 H   0  0  0  0  0  0  0  0  0  0  0  0
   15.5880   -5.8208    1.7962 H   0  0  0  0  0  0  0  0  0  0  0  0
   17.3547   -5.9061    2.1033 H   0  0  0  0  0  0  0  0  0  0  0  0
  1  2  1  0  0  0  0
  1  3  1  0  0  0  0
  4  2  1  0  0  0  0
  3  5  1  0  0  0  0
  5  4  1  0  0  0  0
  6  5  1  0  0  0  0
  7  6  1  0  0  0  0
  8  4  1  0  0  0  0
  9 12  1  0  0  0  0
 10 12  1  0  0  0  0
  7 12  1  0  0  0  0
 11 12  2  0  0  0  0
 13 14  2  0  0  0  0
 13 15  1  0  0  0  0
 14 16  1  0  0  0  0
 15 17  1  0  0  0  0
 16 18  1  0  0  0  0
 17 18  1  0  0  0  0
 19 15  2  0  0  0  0
 20 18  2  0  0  0  0
 21 13  1  0  0  0  0
  1 16  1  0  0  0  0
 22  1  1  0  0  0  0
 23  2  1  0  0  0  0
 24  2  1  0  0  0  0
 25  4  1  0  0  0  0
 26  5  1  0  0  0  0
 27  6  1  0  0  0  0
 28  6  1  0  0  0  0
 29  8  1  0  0  0  0
 30  9  1  0  0  0  0
 31 10  1  0  0  0  0
 32 14  1  0  0  0  0
 33 17  1  0  0  0  0
 34 21  1  0  0  0  0
 35 21  1  0  0  0  0
 36 21  1  0  0  0  0
M  END
